@<TRIPOS>MOLECULE
ITD
 61 64 0 0 0
SMALL
GASTEIGER

@<TRIPOS>ATOM
      1 C1         13.7920   30.6020   69.1190 C.3   1  ITD    -0.0383
      2 N1         15.4380   28.8860   69.7020 N.2   1  ITD    -0.2530
      3 S1         16.0400   26.8940   71.5840 S.2   1  ITD    -0.0581
      4 C2         15.1350   30.3160   69.7800 C.3   1  ITD     0.0768
      5 N2         15.4290   29.3590   71.8440 N.ar  1  ITD    -0.3206
      6 S2         17.0500   30.5020   74.6250 S.3   1  ITD    -0.0847
      7 C3         16.2560   31.1020   69.1070 C.3   1  ITD    -0.0383
      8 N3         17.5210   28.4980   76.1390 N.pl3 1  ITD    -0.3211
      9 C4         15.6050   28.4240   70.9500 C.ar  1  ITD     0.1695
     10 N4         19.3480   29.2780   74.8850 N.2   1  ITD    -0.2602
     11 C5         15.9610   27.5460   73.1930 C.ar  1  ITD    -0.0007
     12 C6         15.0790   30.6540   71.2810 C.3   1  ITD     0.0501
     13 C7         15.6010   28.9110   73.1130 C.ar  1  ITD     0.0379
     14 C8         15.4650   29.8020   74.3200 C.3   1  ITD     0.0418
     15 C9         18.0600   29.3360   75.2480 C.2   1  ITD     0.1501
     16 C10        18.1750   27.4110   76.8490 C.3   1  ITD     0.0224
     17 C11        19.1000   27.9120   77.9540 C.3   1  ITD    -0.0345
     18 C12        19.5320   26.7280   78.8170 C.3   1  ITD    -0.0514
     19 C13        20.2310   25.6580   77.9780 C.3   1  ITD    -0.0529
     20 C14        19.4090   25.2180   76.7640 C.3   1  ITD    -0.0514
     21 C15        18.8830   26.4000   75.9480 C.3   1  ITD    -0.0345
     22 C16        19.8810   29.3700   73.5250 C.3   1  ITD     0.0533
     23 C17        18.9180   28.9640   72.4090 C.3   1  ITD    -0.0305
     24 C18        19.5730   29.0850   71.0350 C.3   1  ITD    -0.0511
     25 C19        20.1580   30.4740   70.7900 C.3   1  ITD    -0.0529
     26 C20        21.1680   30.8250   71.8760 C.3   1  ITD    -0.0511
     27 C21        20.5260   30.7280   73.2570 C.3   1  ITD    -0.0305
     28 H          13.8486   30.3619   68.0778 H     1  ITD     0.0253
     29 H          13.5516   31.6383   69.2335 H     1  ITD     0.0253
     30 H          13.0328   30.0066   69.5816 H     1  ITD     0.0253
     31 H          16.2858   30.8597   68.0652 H     1  ITD     0.0253
     32 H          17.1916   30.8473   69.5594 H     1  ITD     0.0253
     33 H          16.0768   32.1503   69.2244 H     1  ITD     0.0253
     34 H          16.5664   28.6331   76.3384 H     1  ITD     0.1482
     35 H          16.1463   27.0232   74.0633 H     1  ITD     0.0712
     36 H          14.1008   30.9665   71.5816 H     1  ITD     0.0516
     37 H          15.7097   31.4632   71.5849 H     1  ITD     0.0516
     38 H          15.1477   29.2287   75.1659 H     1  ITD     0.0444
     39 H          14.7365   30.5669   74.1494 H     1  ITD     0.0444
     40 H          17.3715   26.8735   77.3076 H     1  ITD     0.0498
     41 H          18.5818   28.6265   78.5589 H     1  ITD     0.0283
     42 H          19.9612   28.3766   77.5211 H     1  ITD     0.0283
     43 H          18.6675   26.2993   79.2794 H     1  ITD     0.0266
     44 H          20.2196   27.0811   79.5568 H     1  ITD     0.0266
     45 H          21.1646   26.0511   77.6333 H     1  ITD     0.0265
     46 H          20.3650   24.7992   78.6019 H     1  ITD     0.0265
     47 H          20.0269   24.6141   76.1328 H     1  ITD     0.0266
     48 H          18.5625   24.6733   77.1268 H     1  ITD     0.0266
     49 H          18.1921   26.0399   75.2146 H     1  ITD     0.0283
     50 H          19.7111   26.8846   75.4743 H     1  ITD     0.0283
     51 H          20.6444   28.6210   73.4932 H     1  ITD     0.0545
     52 H          18.6159   27.9490   72.5623 H     1  ITD     0.0286
     53 H          18.0736   29.6206   72.4380 H     1  ITD     0.0286
     54 H          20.3598   28.3633   70.9645 H     1  ITD     0.0266
     55 H          18.8174   28.9141   70.2969 H     1  ITD     0.0266
     56 H          19.3679   31.1955   70.7971 H     1  ITD     0.0265
     57 H          20.6529   30.4795   69.8413 H     1  ITD     0.0265
     58 H          21.5189   31.8238   71.7205 H     1  ITD     0.0266
     59 H          21.9837   30.1344   71.8251 H     1  ITD     0.0266
     60 H          19.7729   31.4840   73.3361 H     1  ITD     0.0286
     61 H          21.3039   30.8594   73.9799 H     1  ITD     0.0286
@<TRIPOS>BOND
     1     7     4    1
     2     1     4    1
     3     2     4    1
     4     2     9    2
     5     4    12    1
     6    25    24    1
     7    25    26    1
     8     9     3   ar
     9     9     5   ar
    10    24    23    1
    11    12     5    1
    12     3    11   ar
    13     5    13   ar
    14    26    27    1
    15    23    22    1
    16    13    11   ar
    17    13    14    1
    18    27    22    1
    19    22    10    1
    20    14     6    1
    21     6    15    1
    22    10    15    2
    23    15     8    1
    24    21    20    1
    25    21    16    1
    26     8    16    1
    27    20    19    1
    28    16    17    1
    29    17    18    1
    30    19    18    1
    31     1    28    1
    32     1    29    1
    33     1    30    1
    34     7    31    1
    35     7    32    1
    36     7    33    1
    37     8    34    1
    38    11    35    1
    39    12    36    1
    40    12    37    1
    41    14    38    1
    42    14    39    1
    43    16    40    1
    44    17    41    1
    45    17    42    1
    46    18    43    1
    47    18    44    1
    48    19    45    1
    49    19    46    1
    50    20    47    1
    51    20    48    1
    52    21    49    1
    53    21    50    1
    54    22    51    1
    55    23    52    1
    56    23    53    1
    57    24    54    1
    58    24    55    1
    59    25    56    1
    60    25    57    1
    61    26    58    1
    62    26    59    1
    63    27    60    1
    64    27    61    1
